<?xml version = '1.0' encoding='UTF-8'?>

<configuration>
    <input>
        <net-file value="map.net.xml"/>
        <route-files value="map.rou.xml"/>
    </input>
    
    <time>
        <begin value="0"/>
        <end value="500"/>
    </time>

    <output>
        <summary-output value="results.out.xml"/>
    </output>

    <report>
        <verbose value="true"/>
        <duration-log.statistics value="true"/>
    </report>

</configuration>